opendss_models/generated/five_node.dss
! Generated by DNR for Sistema de prueba de 5 nodos
Clear
New Circuit.five_node bus1=1 basekv=13.2 pu=1.0 phases=3

New Line.L1 phases=3 bus1=1 bus2=2 r1=0.2881 x1=0.4021 r0=1.0183 x0=1.367 c1=0 c0=0 length=2.5 units=km
New Line.L2 phases=3 bus1=2 bus2=3 r1=0.2881 x1=0.4021 r0=1.0183 x0=1.367 c1=0 c0=0 length=9.9 units=km
New Line.L3 phases=3 bus1=3 bus2=4 r1=0.2881 x1=0.4021 r0=1.0183 x0=1.367 c1=0 c0=0 length=12.5 units=km
New Line.L4 phases=3 bus1=2 bus2=5 r1=0.2881 x1=0.4021 r0=1.0183 x0=1.367 c1=0 c0=0 length=14.896 units=km
New Line.L5 phases=3 bus1=2 bus2=4 r1=0.2881 x1=0.4021 r0=1.0183 x0=1.367 c1=0 c0=0 length=6.301 units=km
New Line.L6 phases=3 bus1=4 bus2=5 r1=0.2881 x1=0.4021 r0=1.0183 x0=1.367 c1=0 c0=0 length=6.83 units=km

New Load.Load2 bus1=2 phases=3 conn=wye kv=13.2 kw=855 kvar=414 model=1
New Load.Load3 bus1=3 phases=3 conn=wye kv=13.2 kw=1488 kvar=922 model=1
New Load.Load4 bus1=4 phases=3 conn=wye kv=13.2 kw=1395 kvar=676 model=1
New Load.Load5 bus1=5 phases=3 conn=wye kv=13.2 kw=1464 kvar=1098 model=1

Set VoltageBases=[13.2]
CalcVoltageBases
Set MaxIterations=100
